[General]
network = tsn.TSN_Network
sim-time-limit = 1.0s

# enable multiple canvas visualizers
*.visualizer.typename = "IntegratedMultiCanvasVisualizer"

# network route activity visualization
*.visualizer.numNetworkRouteVisualizers = 1
*.visualizer.networkRouteVisualizer[*].displayRoutes = true
*.visualizer.networkRouteVisualizer[0].packetFilter = "\"ats*\""
*.visualizer.networkRouteVisualizer[0].lineColor = "red1"

*.*.eth[*].bitrate = 1Gbps

# packet processing delay
*.*.bridging.directionReverser.delayer.typename = "PacketDelayer"
*.*.bridging.directionReverser.delayer.delay = 8us

*.ES_1.numApps = 8
*.ES_2.numApps = 5
*.ES_3.numApps = 5
*.ES_4.numApps = 7
*.ES_5.numApps = 6
*.ES_6.numApps = 5
*.ES_7.numApps = 8
*.ES_8.numApps = 4
*.ES_9.numApps = 8
*.ES_10.numApps = 7
*.ES_11.numApps = 5
*.ES_12.numApps = 4
*.ES_13.numApps = 8
*.ES_14.numApps = 5
*.ES_15.numApps = 6
*.ES_16.numApps = 6
*.ES_17.numApps = 4
*.ES_18.numApps = 6
*.ES_19.numApps = 7
*.ES_20.numApps = 7
*.ES_21.numApps = 5
*.ES_22.numApps = 4
*.ES_23.numApps = 8
*.ES_24.numApps = 6
*.ES_1.app[0..2].typename = "UdpSourceApp"
*.ES_1.app[0].display-name = "ats-p0"
*.ES_1.app[0].io.destAddress = "ES_20"
*.ES_1.app[0].io.destPort = 1
*.ES_1.app[0].source.productionInterval = 1000us
*.ES_1.app[0].source.initialProductionOffset = 1000us
*.ES_1.app[0].source.packetLength = 95B
*.ES_1.app[1].display-name = "ats-p4"
*.ES_1.app[1].io.destAddress = "ES_13"
*.ES_1.app[1].io.destPort = 2
*.ES_1.app[1].source.productionInterval = 500us
*.ES_1.app[1].source.initialProductionOffset = 500us
*.ES_1.app[1].source.packetLength = 125B
*.ES_1.app[2].display-name = "ats-p5"
*.ES_1.app[2].io.destAddress = "ES_19"
*.ES_1.app[2].io.destPort = 3
*.ES_1.app[2].source.productionInterval = 1000us
*.ES_1.app[2].source.initialProductionOffset = 1000us
*.ES_1.app[2].source.packetLength = 99B
*.ES_1.app[3..7].typename = "UdpSinkApp"
*.ES_1.app[3].io.localPort = 14
*.ES_1.app[4].io.localPort = 22
*.ES_1.app[5].io.localPort = 24
*.ES_1.app[6].io.localPort = 55
*.ES_1.app[7].io.localPort = 56
*.ES_2.app[0..2].typename = "UdpSourceApp"
*.ES_2.app[0].display-name = "ats-p2"
*.ES_2.app[0].io.destAddress = "ES_22"
*.ES_2.app[0].io.destPort = 4
*.ES_2.app[0].source.productionInterval = 1000us
*.ES_2.app[0].source.initialProductionOffset = 1000us
*.ES_2.app[0].source.packetLength = 82B
*.ES_2.app[1].display-name = "ats-p3"
*.ES_2.app[1].io.destAddress = "ES_20"
*.ES_2.app[1].io.destPort = 5
*.ES_2.app[1].source.productionInterval = 500us
*.ES_2.app[1].source.initialProductionOffset = 500us
*.ES_2.app[1].source.packetLength = 95B
*.ES_2.app[2].display-name = "ats-p1"
*.ES_2.app[2].io.destAddress = "ES_17"
*.ES_2.app[2].io.destPort = 6
*.ES_2.app[2].source.productionInterval = 1000us
*.ES_2.app[2].source.initialProductionOffset = 1000us
*.ES_2.app[2].source.packetLength = 116B
*.ES_2.app[3..4].typename = "UdpSinkApp"
*.ES_2.app[3].io.localPort = 13
*.ES_2.app[4].io.localPort = 26
*.ES_3.app[0..2].typename = "UdpSourceApp"
*.ES_3.app[0].display-name = "ats-p3"
*.ES_3.app[0].io.destAddress = "ES_15"
*.ES_3.app[0].io.destPort = 7
*.ES_3.app[0].source.productionInterval = 500us
*.ES_3.app[0].source.initialProductionOffset = 500us
*.ES_3.app[0].source.packetLength = 89B
*.ES_3.app[1].display-name = "ats-p2"
*.ES_3.app[1].io.destAddress = "ES_7"
*.ES_3.app[1].io.destPort = 8
*.ES_3.app[1].source.productionInterval = 500us
*.ES_3.app[1].source.initialProductionOffset = 500us
*.ES_3.app[1].source.packetLength = 64B
*.ES_3.app[2].display-name = "ats-p7"
*.ES_3.app[2].io.destAddress = "ES_10"
*.ES_3.app[2].io.destPort = 9
*.ES_3.app[2].source.productionInterval = 500us
*.ES_3.app[2].source.initialProductionOffset = 500us
*.ES_3.app[2].source.packetLength = 82B
*.ES_3.app[3..4].typename = "UdpSinkApp"
*.ES_3.app[3].io.localPort = 51
*.ES_3.app[4].io.localPort = 71
*.ES_4.app[0..2].typename = "UdpSourceApp"
*.ES_4.app[0].display-name = "ats-p6"
*.ES_4.app[0].io.destAddress = "ES_10"
*.ES_4.app[0].io.destPort = 10
*.ES_4.app[0].source.productionInterval = 1000us
*.ES_4.app[0].source.initialProductionOffset = 1000us
*.ES_4.app[0].source.packetLength = 114B
*.ES_4.app[1].display-name = "ats-p0"
*.ES_4.app[1].io.destAddress = "ES_20"
*.ES_4.app[1].io.destPort = 11
*.ES_4.app[1].source.productionInterval = 1000us
*.ES_4.app[1].source.initialProductionOffset = 1000us
*.ES_4.app[1].source.packetLength = 67B
*.ES_4.app[2].display-name = "ats-p7"
*.ES_4.app[2].io.destAddress = "ES_18"
*.ES_4.app[2].io.destPort = 12
*.ES_4.app[2].source.productionInterval = 1000us
*.ES_4.app[2].source.initialProductionOffset = 1000us
*.ES_4.app[2].source.packetLength = 113B
*.ES_4.app[3..6].typename = "UdpSinkApp"
*.ES_4.app[3].io.localPort = 17
*.ES_4.app[4].io.localPort = 18
*.ES_4.app[5].io.localPort = 32
*.ES_4.app[6].io.localPort = 60
*.ES_5.app[0..2].typename = "UdpSourceApp"
*.ES_5.app[0].display-name = "ats-p6"
*.ES_5.app[0].io.destAddress = "ES_2"
*.ES_5.app[0].io.destPort = 13
*.ES_5.app[0].source.productionInterval = 500us
*.ES_5.app[0].source.initialProductionOffset = 500us
*.ES_5.app[0].source.packetLength = 98B
*.ES_5.app[1].display-name = "ats-p3"
*.ES_5.app[1].io.destAddress = "ES_1"
*.ES_5.app[1].io.destPort = 14
*.ES_5.app[1].source.productionInterval = 1000us
*.ES_5.app[1].source.initialProductionOffset = 1000us
*.ES_5.app[1].source.packetLength = 71B
*.ES_5.app[2].display-name = "ats-p7"
*.ES_5.app[2].io.destAddress = "ES_9"
*.ES_5.app[2].io.destPort = 15
*.ES_5.app[2].source.productionInterval = 500us
*.ES_5.app[2].source.initialProductionOffset = 500us
*.ES_5.app[2].source.packetLength = 90B
*.ES_5.app[3..5].typename = "UdpSinkApp"
*.ES_5.app[3].io.localPort = 34
*.ES_5.app[4].io.localPort = 59
*.ES_5.app[5].io.localPort = 61
*.ES_6.app[0..2].typename = "UdpSourceApp"
*.ES_6.app[0].display-name = "ats-p6"
*.ES_6.app[0].io.destAddress = "ES_18"
*.ES_6.app[0].io.destPort = 16
*.ES_6.app[0].source.productionInterval = 1000us
*.ES_6.app[0].source.initialProductionOffset = 1000us
*.ES_6.app[0].source.packetLength = 99B
*.ES_6.app[1].display-name = "ats-p0"
*.ES_6.app[1].io.destAddress = "ES_4"
*.ES_6.app[1].io.destPort = 17
*.ES_6.app[1].source.productionInterval = 1000us
*.ES_6.app[1].source.initialProductionOffset = 1000us
*.ES_6.app[1].source.packetLength = 114B
*.ES_6.app[2].display-name = "ats-p7"
*.ES_6.app[2].io.destAddress = "ES_4"
*.ES_6.app[2].io.destPort = 18
*.ES_6.app[2].source.productionInterval = 500us
*.ES_6.app[2].source.initialProductionOffset = 500us
*.ES_6.app[2].source.packetLength = 102B
*.ES_6.app[3..4].typename = "UdpSinkApp"
*.ES_6.app[3].io.localPort = 38
*.ES_6.app[4].io.localPort = 40
*.ES_7.app[0..2].typename = "UdpSourceApp"
*.ES_7.app[0].display-name = "ats-p2"
*.ES_7.app[0].io.destAddress = "ES_23"
*.ES_7.app[0].io.destPort = 19
*.ES_7.app[0].source.productionInterval = 1000us
*.ES_7.app[0].source.initialProductionOffset = 1000us
*.ES_7.app[0].source.packetLength = 127B
*.ES_7.app[1].display-name = "ats-p2"
*.ES_7.app[1].io.destAddress = "ES_24"
*.ES_7.app[1].io.destPort = 20
*.ES_7.app[1].source.productionInterval = 1000us
*.ES_7.app[1].source.initialProductionOffset = 1000us
*.ES_7.app[1].source.packetLength = 64B
*.ES_7.app[2].display-name = "ats-p5"
*.ES_7.app[2].io.destAddress = "ES_9"
*.ES_7.app[2].io.destPort = 21
*.ES_7.app[2].source.productionInterval = 500us
*.ES_7.app[2].source.initialProductionOffset = 500us
*.ES_7.app[2].source.packetLength = 115B
*.ES_7.app[3..7].typename = "UdpSinkApp"
*.ES_7.app[3].io.localPort = 8
*.ES_7.app[4].io.localPort = 43
*.ES_7.app[5].io.localPort = 62
*.ES_7.app[6].io.localPort = 64
*.ES_7.app[7].io.localPort = 67
*.ES_8.app[0..2].typename = "UdpSourceApp"
*.ES_8.app[0].display-name = "ats-p5"
*.ES_8.app[0].io.destAddress = "ES_1"
*.ES_8.app[0].io.destPort = 22
*.ES_8.app[0].source.productionInterval = 1000us
*.ES_8.app[0].source.initialProductionOffset = 1000us
*.ES_8.app[0].source.packetLength = 85B
*.ES_8.app[1].display-name = "ats-p6"
*.ES_8.app[1].io.destAddress = "ES_19"
*.ES_8.app[1].io.destPort = 23
*.ES_8.app[1].source.productionInterval = 1000us
*.ES_8.app[1].source.initialProductionOffset = 1000us
*.ES_8.app[1].source.packetLength = 78B
*.ES_8.app[2].display-name = "ats-p1"
*.ES_8.app[2].io.destAddress = "ES_1"
*.ES_8.app[2].io.destPort = 24
*.ES_8.app[2].source.productionInterval = 1000us
*.ES_8.app[2].source.initialProductionOffset = 1000us
*.ES_8.app[2].source.packetLength = 109B
*.ES_8.app[3].typename = "UdpSinkApp"
*.ES_8.app[3].io.localPort = 69
*.ES_9.app[0..2].typename = "UdpSourceApp"
*.ES_9.app[0].display-name = "ats-p7"
*.ES_9.app[0].io.destAddress = "ES_24"
*.ES_9.app[0].io.destPort = 25
*.ES_9.app[0].source.productionInterval = 1000us
*.ES_9.app[0].source.initialProductionOffset = 1000us
*.ES_9.app[0].source.packetLength = 104B
*.ES_9.app[1].display-name = "ats-p3"
*.ES_9.app[1].io.destAddress = "ES_2"
*.ES_9.app[1].io.destPort = 26
*.ES_9.app[1].source.productionInterval = 1000us
*.ES_9.app[1].source.initialProductionOffset = 1000us
*.ES_9.app[1].source.packetLength = 96B
*.ES_9.app[2].display-name = "ats-p6"
*.ES_9.app[2].io.destAddress = "ES_23"
*.ES_9.app[2].io.destPort = 27
*.ES_9.app[2].source.productionInterval = 500us
*.ES_9.app[2].source.initialProductionOffset = 500us
*.ES_9.app[2].source.packetLength = 99B
*.ES_9.app[3..7].typename = "UdpSinkApp"
*.ES_9.app[3].io.localPort = 15
*.ES_9.app[4].io.localPort = 21
*.ES_9.app[5].io.localPort = 28
*.ES_9.app[6].io.localPort = 30
*.ES_9.app[7].io.localPort = 39
*.ES_10.app[0..2].typename = "UdpSourceApp"
*.ES_10.app[0].display-name = "ats-p5"
*.ES_10.app[0].io.destAddress = "ES_9"
*.ES_10.app[0].io.destPort = 28
*.ES_10.app[0].source.productionInterval = 500us
*.ES_10.app[0].source.initialProductionOffset = 500us
*.ES_10.app[0].source.packetLength = 81B
*.ES_10.app[1].display-name = "ats-p0"
*.ES_10.app[1].io.destAddress = "ES_23"
*.ES_10.app[1].io.destPort = 29
*.ES_10.app[1].source.productionInterval = 1000us
*.ES_10.app[1].source.initialProductionOffset = 1000us
*.ES_10.app[1].source.packetLength = 68B
*.ES_10.app[2].display-name = "ats-p5"
*.ES_10.app[2].io.destAddress = "ES_9"
*.ES_10.app[2].io.destPort = 30
*.ES_10.app[2].source.productionInterval = 500us
*.ES_10.app[2].source.initialProductionOffset = 500us
*.ES_10.app[2].source.packetLength = 112B
*.ES_10.app[3..6].typename = "UdpSinkApp"
*.ES_10.app[3].io.localPort = 9
*.ES_10.app[4].io.localPort = 10
*.ES_10.app[5].io.localPort = 46
*.ES_10.app[6].io.localPort = 68
*.ES_11.app[0..2].typename = "UdpSourceApp"
*.ES_11.app[0].display-name = "ats-p4"
*.ES_11.app[0].io.destAddress = "ES_12"
*.ES_11.app[0].io.destPort = 31
*.ES_11.app[0].source.productionInterval = 1000us
*.ES_11.app[0].source.initialProductionOffset = 1000us
*.ES_11.app[0].source.packetLength = 72B
*.ES_11.app[1].display-name = "ats-p2"
*.ES_11.app[1].io.destAddress = "ES_4"
*.ES_11.app[1].io.destPort = 32
*.ES_11.app[1].source.productionInterval = 500us
*.ES_11.app[1].source.initialProductionOffset = 500us
*.ES_11.app[1].source.packetLength = 90B
*.ES_11.app[2].display-name = "ats-p6"
*.ES_11.app[2].io.destAddress = "ES_18"
*.ES_11.app[2].io.destPort = 33
*.ES_11.app[2].source.productionInterval = 1000us
*.ES_11.app[2].source.initialProductionOffset = 1000us
*.ES_11.app[2].source.packetLength = 114B
*.ES_11.app[3..4].typename = "UdpSinkApp"
*.ES_11.app[3].io.localPort = 41
*.ES_11.app[4].io.localPort = 47
*.ES_12.app[0..2].typename = "UdpSourceApp"
*.ES_12.app[0].display-name = "ats-p3"
*.ES_12.app[0].io.destAddress = "ES_5"
*.ES_12.app[0].io.destPort = 34
*.ES_12.app[0].source.productionInterval = 500us
*.ES_12.app[0].source.initialProductionOffset = 500us
*.ES_12.app[0].source.packetLength = 100B
*.ES_12.app[1].display-name = "ats-p0"
*.ES_12.app[1].io.destAddress = "ES_13"
*.ES_12.app[1].io.destPort = 35
*.ES_12.app[1].source.productionInterval = 500us
*.ES_12.app[1].source.initialProductionOffset = 500us
*.ES_12.app[1].source.packetLength = 85B
*.ES_12.app[2].display-name = "ats-p5"
*.ES_12.app[2].io.destAddress = "ES_15"
*.ES_12.app[2].io.destPort = 36
*.ES_12.app[2].source.productionInterval = 500us
*.ES_12.app[2].source.initialProductionOffset = 500us
*.ES_12.app[2].source.packetLength = 85B
*.ES_12.app[3].typename = "UdpSinkApp"
*.ES_12.app[3].io.localPort = 31
*.ES_13.app[0..2].typename = "UdpSourceApp"
*.ES_13.app[0].display-name = "ats-p0"
*.ES_13.app[0].io.destAddress = "ES_20"
*.ES_13.app[0].io.destPort = 37
*.ES_13.app[0].source.productionInterval = 1000us
*.ES_13.app[0].source.initialProductionOffset = 1000us
*.ES_13.app[0].source.packetLength = 113B
*.ES_13.app[1].display-name = "ats-p5"
*.ES_13.app[1].io.destAddress = "ES_6"
*.ES_13.app[1].io.destPort = 38
*.ES_13.app[1].source.productionInterval = 1000us
*.ES_13.app[1].source.initialProductionOffset = 1000us
*.ES_13.app[1].source.packetLength = 104B
*.ES_13.app[2].display-name = "ats-p7"
*.ES_13.app[2].io.destAddress = "ES_9"
*.ES_13.app[2].io.destPort = 39
*.ES_13.app[2].source.productionInterval = 500us
*.ES_13.app[2].source.initialProductionOffset = 500us
*.ES_13.app[2].source.packetLength = 89B
*.ES_13.app[3..7].typename = "UdpSinkApp"
*.ES_13.app[3].io.localPort = 2
*.ES_13.app[4].io.localPort = 35
*.ES_13.app[5].io.localPort = 42
*.ES_13.app[6].io.localPort = 44
*.ES_13.app[7].io.localPort = 48
*.ES_14.app[0..2].typename = "UdpSourceApp"
*.ES_14.app[0].display-name = "ats-p7"
*.ES_14.app[0].io.destAddress = "ES_6"
*.ES_14.app[0].io.destPort = 40
*.ES_14.app[0].source.productionInterval = 1000us
*.ES_14.app[0].source.initialProductionOffset = 1000us
*.ES_14.app[0].source.packetLength = 100B
*.ES_14.app[1].display-name = "ats-p6"
*.ES_14.app[1].io.destAddress = "ES_11"
*.ES_14.app[1].io.destPort = 41
*.ES_14.app[1].source.productionInterval = 1000us
*.ES_14.app[1].source.initialProductionOffset = 1000us
*.ES_14.app[1].source.packetLength = 108B
*.ES_14.app[2].display-name = "ats-p3"
*.ES_14.app[2].io.destAddress = "ES_13"
*.ES_14.app[2].io.destPort = 42
*.ES_14.app[2].source.productionInterval = 500us
*.ES_14.app[2].source.initialProductionOffset = 500us
*.ES_14.app[2].source.packetLength = 123B
*.ES_14.app[3..4].typename = "UdpSinkApp"
*.ES_14.app[3].io.localPort = 52
*.ES_14.app[4].io.localPort = 72
*.ES_15.app[0..2].typename = "UdpSourceApp"
*.ES_15.app[0].display-name = "ats-p0"
*.ES_15.app[0].io.destAddress = "ES_7"
*.ES_15.app[0].io.destPort = 43
*.ES_15.app[0].source.productionInterval = 500us
*.ES_15.app[0].source.initialProductionOffset = 500us
*.ES_15.app[0].source.packetLength = 120B
*.ES_15.app[1].display-name = "ats-p1"
*.ES_15.app[1].io.destAddress = "ES_13"
*.ES_15.app[1].io.destPort = 44
*.ES_15.app[1].source.productionInterval = 500us
*.ES_15.app[1].source.initialProductionOffset = 500us
*.ES_15.app[1].source.packetLength = 116B
*.ES_15.app[2].display-name = "ats-p7"
*.ES_15.app[2].io.destAddress = "ES_16"
*.ES_15.app[2].io.destPort = 45
*.ES_15.app[2].source.productionInterval = 1000us
*.ES_15.app[2].source.initialProductionOffset = 1000us
*.ES_15.app[2].source.packetLength = 81B
*.ES_15.app[3..5].typename = "UdpSinkApp"
*.ES_15.app[3].io.localPort = 7
*.ES_15.app[4].io.localPort = 36
*.ES_15.app[5].io.localPort = 70
*.ES_16.app[0..2].typename = "UdpSourceApp"
*.ES_16.app[0].display-name = "ats-p7"
*.ES_16.app[0].io.destAddress = "ES_10"
*.ES_16.app[0].io.destPort = 46
*.ES_16.app[0].source.productionInterval = 1000us
*.ES_16.app[0].source.initialProductionOffset = 1000us
*.ES_16.app[0].source.packetLength = 119B
*.ES_16.app[1].display-name = "ats-p1"
*.ES_16.app[1].io.destAddress = "ES_11"
*.ES_16.app[1].io.destPort = 47
*.ES_16.app[1].source.productionInterval = 1000us
*.ES_16.app[1].source.initialProductionOffset = 1000us
*.ES_16.app[1].source.packetLength = 95B
*.ES_16.app[2].display-name = "ats-p5"
*.ES_16.app[2].io.destAddress = "ES_13"
*.ES_16.app[2].io.destPort = 48
*.ES_16.app[2].source.productionInterval = 500us
*.ES_16.app[2].source.initialProductionOffset = 500us
*.ES_16.app[2].source.packetLength = 122B
*.ES_16.app[3..5].typename = "UdpSinkApp"
*.ES_16.app[3].io.localPort = 45
*.ES_16.app[4].io.localPort = 53
*.ES_16.app[5].io.localPort = 66
*.ES_17.app[0..2].typename = "UdpSourceApp"
*.ES_17.app[0].display-name = "ats-p0"
*.ES_17.app[0].io.destAddress = "ES_21"
*.ES_17.app[0].io.destPort = 49
*.ES_17.app[0].source.productionInterval = 500us
*.ES_17.app[0].source.initialProductionOffset = 500us
*.ES_17.app[0].source.packetLength = 85B
*.ES_17.app[1].display-name = "ats-p0"
*.ES_17.app[1].io.destAddress = "ES_19"
*.ES_17.app[1].io.destPort = 50
*.ES_17.app[1].source.productionInterval = 500us
*.ES_17.app[1].source.initialProductionOffset = 500us
*.ES_17.app[1].source.packetLength = 128B
*.ES_17.app[2].display-name = "ats-p6"
*.ES_17.app[2].io.destAddress = "ES_3"
*.ES_17.app[2].io.destPort = 51
*.ES_17.app[2].source.productionInterval = 500us
*.ES_17.app[2].source.initialProductionOffset = 500us
*.ES_17.app[2].source.packetLength = 77B
*.ES_17.app[3].typename = "UdpSinkApp"
*.ES_17.app[3].io.localPort = 6
*.ES_18.app[0..2].typename = "UdpSourceApp"
*.ES_18.app[0].display-name = "ats-p6"
*.ES_18.app[0].io.destAddress = "ES_14"
*.ES_18.app[0].io.destPort = 52
*.ES_18.app[0].source.productionInterval = 500us
*.ES_18.app[0].source.initialProductionOffset = 500us
*.ES_18.app[0].source.packetLength = 74B
*.ES_18.app[1].display-name = "ats-p6"
*.ES_18.app[1].io.destAddress = "ES_16"
*.ES_18.app[1].io.destPort = 53
*.ES_18.app[1].source.productionInterval = 1000us
*.ES_18.app[1].source.initialProductionOffset = 1000us
*.ES_18.app[1].source.packetLength = 73B
*.ES_18.app[2].display-name = "ats-p6"
*.ES_18.app[2].io.destAddress = "ES_23"
*.ES_18.app[2].io.destPort = 54
*.ES_18.app[2].source.productionInterval = 500us
*.ES_18.app[2].source.initialProductionOffset = 500us
*.ES_18.app[2].source.packetLength = 116B
*.ES_18.app[3..5].typename = "UdpSinkApp"
*.ES_18.app[3].io.localPort = 12
*.ES_18.app[4].io.localPort = 16
*.ES_18.app[5].io.localPort = 33
*.ES_19.app[0..2].typename = "UdpSourceApp"
*.ES_19.app[0].display-name = "ats-p4"
*.ES_19.app[0].io.destAddress = "ES_1"
*.ES_19.app[0].io.destPort = 55
*.ES_19.app[0].source.productionInterval = 500us
*.ES_19.app[0].source.initialProductionOffset = 500us
*.ES_19.app[0].source.packetLength = 77B
*.ES_19.app[1].display-name = "ats-p1"
*.ES_19.app[1].io.destAddress = "ES_1"
*.ES_19.app[1].io.destPort = 56
*.ES_19.app[1].source.productionInterval = 500us
*.ES_19.app[1].source.initialProductionOffset = 500us
*.ES_19.app[1].source.packetLength = 108B
*.ES_19.app[2].display-name = "ats-p4"
*.ES_19.app[2].io.destAddress = "ES_23"
*.ES_19.app[2].io.destPort = 57
*.ES_19.app[2].source.productionInterval = 1000us
*.ES_19.app[2].source.initialProductionOffset = 1000us
*.ES_19.app[2].source.packetLength = 81B
*.ES_19.app[3..6].typename = "UdpSinkApp"
*.ES_19.app[3].io.localPort = 3
*.ES_19.app[4].io.localPort = 23
*.ES_19.app[5].io.localPort = 50
*.ES_19.app[6].io.localPort = 63
*.ES_20.app[0..2].typename = "UdpSourceApp"
*.ES_20.app[0].display-name = "ats-p1"
*.ES_20.app[0].io.destAddress = "ES_21"
*.ES_20.app[0].io.destPort = 58
*.ES_20.app[0].source.productionInterval = 500us
*.ES_20.app[0].source.initialProductionOffset = 500us
*.ES_20.app[0].source.packetLength = 121B
*.ES_20.app[1].display-name = "ats-p6"
*.ES_20.app[1].io.destAddress = "ES_5"
*.ES_20.app[1].io.destPort = 59
*.ES_20.app[1].source.productionInterval = 1000us
*.ES_20.app[1].source.initialProductionOffset = 1000us
*.ES_20.app[1].source.packetLength = 106B
*.ES_20.app[2].display-name = "ats-p2"
*.ES_20.app[2].io.destAddress = "ES_4"
*.ES_20.app[2].io.destPort = 60
*.ES_20.app[2].source.productionInterval = 500us
*.ES_20.app[2].source.initialProductionOffset = 500us
*.ES_20.app[2].source.packetLength = 104B
*.ES_20.app[3..6].typename = "UdpSinkApp"
*.ES_20.app[3].io.localPort = 1
*.ES_20.app[4].io.localPort = 5
*.ES_20.app[5].io.localPort = 11
*.ES_20.app[6].io.localPort = 37
*.ES_21.app[0..2].typename = "UdpSourceApp"
*.ES_21.app[0].display-name = "ats-p5"
*.ES_21.app[0].io.destAddress = "ES_5"
*.ES_21.app[0].io.destPort = 61
*.ES_21.app[0].source.productionInterval = 500us
*.ES_21.app[0].source.initialProductionOffset = 500us
*.ES_21.app[0].source.packetLength = 88B
*.ES_21.app[1].display-name = "ats-p3"
*.ES_21.app[1].io.destAddress = "ES_7"
*.ES_21.app[1].io.destPort = 62
*.ES_21.app[1].source.productionInterval = 1000us
*.ES_21.app[1].source.initialProductionOffset = 1000us
*.ES_21.app[1].source.packetLength = 97B
*.ES_21.app[2].display-name = "ats-p5"
*.ES_21.app[2].io.destAddress = "ES_19"
*.ES_21.app[2].io.destPort = 63
*.ES_21.app[2].source.productionInterval = 1000us
*.ES_21.app[2].source.initialProductionOffset = 1000us
*.ES_21.app[2].source.packetLength = 112B
*.ES_21.app[3..4].typename = "UdpSinkApp"
*.ES_21.app[3].io.localPort = 49
*.ES_21.app[4].io.localPort = 58
*.ES_22.app[0..2].typename = "UdpSourceApp"
*.ES_22.app[0].display-name = "ats-p4"
*.ES_22.app[0].io.destAddress = "ES_7"
*.ES_22.app[0].io.destPort = 64
*.ES_22.app[0].source.productionInterval = 1000us
*.ES_22.app[0].source.initialProductionOffset = 1000us
*.ES_22.app[0].source.packetLength = 66B
*.ES_22.app[1].display-name = "ats-p4"
*.ES_22.app[1].io.destAddress = "ES_24"
*.ES_22.app[1].io.destPort = 65
*.ES_22.app[1].source.productionInterval = 1000us
*.ES_22.app[1].source.initialProductionOffset = 1000us
*.ES_22.app[1].source.packetLength = 127B
*.ES_22.app[2].display-name = "ats-p5"
*.ES_22.app[2].io.destAddress = "ES_16"
*.ES_22.app[2].io.destPort = 66
*.ES_22.app[2].source.productionInterval = 1000us
*.ES_22.app[2].source.initialProductionOffset = 1000us
*.ES_22.app[2].source.packetLength = 97B
*.ES_22.app[3].typename = "UdpSinkApp"
*.ES_22.app[3].io.localPort = 4
*.ES_23.app[0..2].typename = "UdpSourceApp"
*.ES_23.app[0].display-name = "ats-p5"
*.ES_23.app[0].io.destAddress = "ES_7"
*.ES_23.app[0].io.destPort = 67
*.ES_23.app[0].source.productionInterval = 1000us
*.ES_23.app[0].source.initialProductionOffset = 1000us
*.ES_23.app[0].source.packetLength = 74B
*.ES_23.app[1].display-name = "ats-p2"
*.ES_23.app[1].io.destAddress = "ES_10"
*.ES_23.app[1].io.destPort = 68
*.ES_23.app[1].source.productionInterval = 500us
*.ES_23.app[1].source.initialProductionOffset = 500us
*.ES_23.app[1].source.packetLength = 113B
*.ES_23.app[2].display-name = "ats-p1"
*.ES_23.app[2].io.destAddress = "ES_8"
*.ES_23.app[2].io.destPort = 69
*.ES_23.app[2].source.productionInterval = 1000us
*.ES_23.app[2].source.initialProductionOffset = 1000us
*.ES_23.app[2].source.packetLength = 95B
*.ES_23.app[3..7].typename = "UdpSinkApp"
*.ES_23.app[3].io.localPort = 19
*.ES_23.app[4].io.localPort = 27
*.ES_23.app[5].io.localPort = 29
*.ES_23.app[6].io.localPort = 54
*.ES_23.app[7].io.localPort = 57
*.ES_24.app[0..2].typename = "UdpSourceApp"
*.ES_24.app[0].display-name = "ats-p6"
*.ES_24.app[0].io.destAddress = "ES_15"
*.ES_24.app[0].io.destPort = 70
*.ES_24.app[0].source.productionInterval = 1000us
*.ES_24.app[0].source.initialProductionOffset = 1000us
*.ES_24.app[0].source.packetLength = 104B
*.ES_24.app[1].display-name = "ats-p2"
*.ES_24.app[1].io.destAddress = "ES_3"
*.ES_24.app[1].io.destPort = 71
*.ES_24.app[1].source.productionInterval = 1000us
*.ES_24.app[1].source.initialProductionOffset = 1000us
*.ES_24.app[1].source.packetLength = 75B
*.ES_24.app[2].display-name = "ats-p7"
*.ES_24.app[2].io.destAddress = "ES_14"
*.ES_24.app[2].io.destPort = 72
*.ES_24.app[2].source.productionInterval = 1000us
*.ES_24.app[2].source.initialProductionOffset = 1000us
*.ES_24.app[2].source.packetLength = 76B
*.ES_24.app[3..5].typename = "UdpSinkApp"
*.ES_24.app[3].io.localPort = 20
*.ES_24.app[4].io.localPort = 25
*.ES_24.app[5].io.localPort = 65

*.ES*.hasUdp = firstAvailableOrEmpty("Udp") != ""

# steering stream identification and coding
*.ES*.bridging.streamIdentifier.identifier.mapping = [{stream :"ats-p0", packetFilter: expr(udp.destPort == 1 || udp.destPort == 11 || udp.destPort == 17 || udp.destPort == 29 || udp.destPort == 35 || udp.destPort == 37 || udp.destPort == 43 || udp.destPort == 49 || udp.destPort == 50)}, {stream :"ats-p1", packetFilter: expr(udp.destPort == 6 || udp.destPort == 24 || udp.destPort == 44 || udp.destPort == 47 || udp.destPort == 56 || udp.destPort == 58 || udp.destPort == 69)}, {stream :"ats-p2", packetFilter: expr(udp.destPort == 4 || udp.destPort == 8 || udp.destPort == 19 || udp.destPort == 20 || udp.destPort == 32 || udp.destPort == 60 || udp.destPort == 68 || udp.destPort == 71)}, {stream :"ats-p3", packetFilter: expr(udp.destPort == 5 || udp.destPort == 7 || udp.destPort == 14 || udp.destPort == 26 || udp.destPort == 34 || udp.destPort == 42 || udp.destPort == 62)}, {stream :"ats-p4", packetFilter: expr(udp.destPort == 2 || udp.destPort == 31 || udp.destPort == 55 || udp.destPort == 57 || udp.destPort == 64 || udp.destPort == 65)}, {stream :"ats-p5", packetFilter: expr(udp.destPort == 3 || udp.destPort == 21 || udp.destPort == 22 || udp.destPort == 28 || udp.destPort == 30 || udp.destPort == 36 || udp.destPort == 38 || udp.destPort == 48 || udp.destPort == 61 || udp.destPort == 63 || udp.destPort == 66 || udp.destPort == 67)}, {stream :"ats-p6", packetFilter: expr(udp.destPort == 10 || udp.destPort == 13 || udp.destPort == 16 || udp.destPort == 23 || udp.destPort == 27 || udp.destPort == 33 || udp.destPort == 41 || udp.destPort == 51 || udp.destPort == 52 || udp.destPort == 53 || udp.destPort == 54 || udp.destPort == 59 || udp.destPort == 70)}, {stream :"ats-p7", packetFilter: expr(udp.destPort == 9 || udp.destPort == 12 || udp.destPort == 15 || udp.destPort == 18 || udp.destPort == 25 || udp.destPort == 39 || udp.destPort == 40 || udp.destPort == 45 || udp.destPort == 46 || udp.destPort == 72)}]

*.ES*.bridging.streamFilter.ingress.classifier.mapping = { "ats-p0": 0 , "ats-p1": 1, "ats-p2": 2, "ats-p3": 3, "ats-p4": 4, "ats-p5": 5, "ats-p6": 6, "ats-p7": 7}
*.ES*.eth[*].macLayer.queue.numTrafficClasses = 8
*.ES*.eth[*].macLayer.queue.numQueues = 8
*.ES*.eth[*].macLayer.queue.*[0].display-name = "ats-p0"
*.ES*.eth[*].macLayer.queue.*[1].display-name = "ats-p1"
*.ES*.eth[*].macLayer.queue.*[2].display-name = "ats-p2"
*.ES*.eth[*].macLayer.queue.*[3].display-name = "ats-p3"
*.ES*.eth[*].macLayer.queue.*[4].display-name = "ats-p4"
*.ES*.eth[*].macLayer.queue.*[5].display-name = "ats-p5"
*.ES*.eth[*].macLayer.queue.*[6].display-name = "ats-p6"
*.ES*.eth[*].macLayer.queue.*[7].display-name = "ats-p7"

# client stream encoding
*.ES*.bridging.streamCoder.encoder.mapping = [{stream: "ats-p0", pcp: 0}, {stream: "ats-p1", pcp: 1}, {stream: "ats-p2", pcp: 2}, {stream: "ats-p3", pcp: 3}, {stream: "ats-p4", pcp: 4}, {stream: "ats-p5", pcp: 5}, {stream: "ats-p6", pcp: 6}, {stream: "ats-p7", pcp: 7}]

# enable streams
*.Switch*.hasIncomingStreams = true
*.Switch*.hasOutgoingStreams = true
*.ES*.hasIncomingStreams = true
*.ES*.hasOutgoingStreams = true

# stream coder mappings for switches
*.Switch*.bridging.streamCoder.encoder.mapping = [{stream: "ats-p0", pcp: 0}, {stream: "ats-p1", pcp: 1}, {stream: "ats-p2", pcp: 2}, {stream: "ats-p3", pcp: 3}, {stream: "ats-p4", pcp: 4}, {stream: "ats-p5", pcp: 5}, {stream: "ats-p6", pcp: 6}, {stream: "ats-p7", pcp: 7}]
*.Switch*.bridging.streamCoder.decoder.mapping = [{stream: "ats-p0", pcp: 0}, {stream: "ats-p1", pcp: 1}, {stream: "ats-p2", pcp: 2}, {stream: "ats-p3", pcp: 3}, {stream: "ats-p4", pcp: 4}, {stream: "ats-p5", pcp: 5}, {stream: "ats-p6", pcp: 6}, {stream: "ats-p7", pcp: 7}]
*.Switch*.eth[*].macLayer.queue.classifier.mapping = [[0,0,0,0,0,0,0,0], [1,1,1,1,1,1,1,1], [2,2,2,2,2,2,2,2], [3,3,3,3,3,3,3,3], [4,4,4,4,4,4,4,4], [5,5,5,5,5,5,5,5], [6,6,6,6,6,6,6,6], [7,7,7,7,7,7,7,7]]

# enable ingress per-stream filtering
*.Switch*.hasIngressTrafficFiltering = true

# enable egress traffic shaping
*.*.hasEgressTrafficShaping = true

# asynchronous shaper traffic metering
*.Switch*.bridging.streamFilter.ingress.numStreams = 8
*.Switch*.bridging.streamFilter.ingress.classifier.mapping = { "ats-p0": 0 , "ats-p1": 1, "ats-p2": 2, "ats-p3": 3, "ats-p4": 4, "ats-p5": 5, "ats-p6": 6, "ats-p7": 7 }
*.Switch*.bridging.streamFilter.ingress.*[0].display-name = "ats-p0"
*.Switch*.bridging.streamFilter.ingress.*[1].display-name = "ats-p1"
*.Switch*.bridging.streamFilter.ingress.*[2].display-name = "ats-p2"
*.Switch*.bridging.streamFilter.ingress.*[3].display-name = "ats-p3"
*.Switch*.bridging.streamFilter.ingress.*[4].display-name = "ats-p4"
*.Switch*.bridging.streamFilter.ingress.*[5].display-name = "ats-p5"
*.Switch*.bridging.streamFilter.ingress.*[6].display-name = "ats-p6"
*.Switch*.bridging.streamFilter.ingress.*[7].display-name = "ats-p7"
*.Switch*.bridging.streamFilter.ingress.meter[*].typename = "EligibilityTimeMeter"
*.Switch*.bridging.streamFilter.ingress.filter[*].typename = "EligibilityTimeFilter"

*.Switch*.bridging.streamFilter.ingress.meter[0].committedInformationRate = 100Mbps
*.Switch*.bridging.streamFilter.ingress.meter[0].committedBurstSize = 500B
*.Switch*.bridging.streamFilter.ingress.meter[1].committedInformationRate = 100Mbps
*.Switch*.bridging.streamFilter.ingress.meter[1].committedBurstSize = 500B
*.Switch*.bridging.streamFilter.ingress.meter[2].committedInformationRate = 100Mbps
*.Switch*.bridging.streamFilter.ingress.meter[2].committedBurstSize = 500B
*.Switch*.bridging.streamFilter.ingress.meter[3].committedInformationRate = 100Mbps
*.Switch*.bridging.streamFilter.ingress.meter[3].committedBurstSize = 500B
*.Switch*.bridging.streamFilter.ingress.meter[4].committedInformationRate = 100Mbps
*.Switch*.bridging.streamFilter.ingress.meter[4].committedBurstSize = 500B
*.Switch*.bridging.streamFilter.ingress.meter[5].committedInformationRate = 100Mbps
*.Switch*.bridging.streamFilter.ingress.meter[5].committedBurstSize = 500B
*.Switch*.bridging.streamFilter.ingress.meter[6].committedInformationRate = 100Mbps
*.Switch*.bridging.streamFilter.ingress.meter[6].committedBurstSize = 500B